<?xml version="1.0" encoding="iso-8859-1"?>

<configuration xmlns:xsi="http://www.w3.org/2001/XMLSchema-instance" xsi:noNamespaceSchemaLocation="http://sumo.sf.net/xsd/sumoConfiguration.xsd">

    <input>
        <net-file value="my_net.net.xml"/>
        <!-- <additional-files value="my_net.rou.xml,detectors.add.xml,my_net.flow.xml"/> -->
        <additional-files value="old_net.rou.xml,detectors.add.xml,old_net.flow.xml"/>
    </input>

    <time>
        <begin value="0"/>
        <end value="10000000"/>
        <step-length value="0.1"/>
    </time>

    <processing>
        <collision.action value="remove"/>
        <collision.stoptime value="0.1"/>
    </processing>

    <gui_only>
        <start value="true"/>
    </gui_only>

</configuration>